sistemas/ieee14.pwf
(
( Gravacao de .PWF - CART
( Versao do Anarede: 11.07.02
( Data e Hora da Gravacao: 19/02/2024 - 08:39:59                                                           
(
TITU
****   Sistema teste de 14 maquinas - IEEE  ****                                
DCTE
(Mn) ( Val) (Mn) ( Val) (Mn) ( Val) (Mn) ( Val) (Mn) ( Val) (Mn) ( Val) 
BASE   100. DASE   100. TEPA  .1E-7 EXST    .04 TETP     5. TBPA     5.
TLPP     1. TEPR  .1E-7 QLST    .04 TLPR  .1E-7 TLPQ     2. TSBZ    .01
TSBA     5. ASTP    .05 VSTP     5. TLVC    .05 TLTC    .01 TSFR  .1E-7
ZMAX   500. TLPV     .5 VDVM   200. VDVN    40. TUDC   .001 TADC    .01
PGER    30. TPST    .02 VFLD    70. ZMIN   .001 HIST    470 LFIT     10
ACIT    100 LFCV      1 DCIT     10 VSIT     10 LPIT     50 LFLP     10
PDIT     10 LCRT    200 LPRT     60 CSTP     5. ASDC     1.
ICIT   9999 DMAX   9999 FDIV     2. ICMN  .1E-8 VART     5. TSTP     32
ICMV     .5 APAS    90. CPAR    70. VAVT     2. VAVF     5. VMVF    15.
VPVT     2. VPVF     5. VPMF    10. VSVF    20. VINF     1. VSUP     1.
TLSI     0. NDIR    20. STTR     5. TRPT   100. STIR     1. BFPO     1.
LFPO     .1 TLMT     0. TLMF     0. TLMG     0. PARS    10.            
99999
DBAR
(Num)OETGb(   nome   )Gl( V)( A)( Pg)( Qg)( Qn)( Qm)(Bc  )( Pl)( Ql)( Sh)Are(Vf)M(1)(2)(3)(4)(5)(6)(7)(8)(9)(10
    1 L2  BARRA-1       1060  0.          -999999999                       11000                                   
    2 L1  BARRA-2       1045      40.      -40.  50.       21.7 12.7       11000                                   
    3 L1  BARRA-3       1010       0.        0.  40.       94.2  19.       11000                                   
    4 L   BARRA-4                                          47.8 -3.9       11000                                   
    5 L   BARRA-5                                           7.6  1.6       11000                                   
    6 L1  BARRA-6       1070       0.       -6.  24.       11.2  7.5       11000                                   
    7 L   BARRA-7                                                          11000                                   
    8 L1  BARRA-8       1090       0.       -6.  24.                       11000                                   
    9 L   BARRA-9                                          29.5 16.6  19.  11000                                   
   10 L   BARRA-10                                           9.  5.8       11000                                   
   11 L   BARRA-11                                          3.5  1.8       11000                                   
   12 L   BARRA-12                                          6.1  1.6       11000                                   
   13 L   BARRA-13                                         13.5  5.8       11000                                   
   14 L   BARRA-14                                         14.9   5.       11000                                   
99999
DLIN
(De )d O d(Pa )NcEPM( R% )( X% )(Mvar)(Tap)(Tmn)(Tmx)(Phs)(Bc  )(Cn)(Ce)Ns(Cq)(1)(2)(3)(4)(5)(6)(7)(8)(9)(10
    1         2 1    1.938 5.917  5.28                          99999999  9999                                
    1         5 1    5.40322.304  4.92                          99999999  9999                                
    2         3 1    4.69919.797  4.38                          99999999  9999                                
    2         4 1    5.81117.632  3.74                          99999999  9999                                
    2         5 1    5.69517.388   3.4                          99999999  9999                                
    3         4 1    6.70117.103  3.46                          99999999  9999                                
    4         5 1    1.335 4.211  1.28                          99999999  9999                                
    4         7 1         20.912       .978   .8  1.2          499999999  9999                                
    4         9 1         55.618       .969   .8  1.2          499999999  9999                                
    5         6 1         25.202       .932   .8  1.2          599999999  9999                                
    6        11 1    9.498 19.89                                99999999  9999                                
    6        12 1   12.29125.581                                99999999  9999                                
    6        13 1    6.61513.027                                99999999  9999                                
    7         8 1         17.615                                99999999  9999                                
    7         9 1         11.001                                99999999  9999                                
    9        10 1    3.181  8.45                                99999999  9999                                
    9        14 1   12.71127.038                                99999999  9999                                
   10        11 1    8.20519.207                                99999999  9999                                
   12        13 1   22.09219.988                                99999999  9999                                
   13        14 1   17.09334.802                                99999999  9999                                
99999
DGER
(No ) O (Pmn ) (Pmx ) ( Fp) (FpR) (FPn) (Fa) (Fr) (Ag) ( Xq) (Sno) (Est)
    1           9999.    0.  100.                                  1.67
    2           9999.    0.  100.                                  1.67
    3           9999.    0.  100.                                  1.67
    6           9999.    0.  100.                                  1.67
    8           9999.    0.  100.                                  1.67
99999
FIM